* NGSPICE file created from user_analog_project_wrapper.ext - technology: sky130A

.subckt armleo_gpio_lv2hv A_N A VSSH VDDH Y VDDH a_217_2223# a_481_358# a_481_2165#
X0 a_481_358# Y VDDH VDDH sky130_fd_pr__pfet_g5v0d10v5 ad=0p pd=0u as=0p ps=0u w=1e+06u l=500000u
X1 VDDH a_217_2223# a_481_2165# VDDH sky130_fd_pr__pfet_g5v0d10v5 ad=0p pd=0u as=0p ps=0u w=1e+06u l=500000u
X2 VSSH A a_217_2223# VSSH sky130_fd_pr__nfet_g5v0d10v5 ad=0p pd=0u as=0p ps=0u w=1e+06u l=500000u
X3 a_481_2165# A_N Y VDDH sky130_fd_pr__pfet_g5v0d10v5 ad=0p pd=0u as=0p ps=0u w=1e+06u l=500000u
X4 a_217_2223# A a_481_358# VDDH sky130_fd_pr__pfet_g5v0d10v5 ad=0p pd=0u as=0p ps=0u w=1e+06u l=500000u
X5 Y A_N VSSH VSSH sky130_fd_pr__nfet_g5v0d10v5 ad=0p pd=0u as=0p ps=0u w=1e+06u l=500000u
.ends

.subckt armleo_gpio_pfet_driver_x6 a_258_200# w_0_0# a_358_487#
X0 w_0_0# a_258_200# a_358_487# w_0_0# sky130_fd_pr__pfet_g5v0d10v5 ad=0p pd=0u as=0p ps=0u w=1e+07u l=500000u
X1 w_0_0# a_258_200# a_358_487# w_0_0# sky130_fd_pr__pfet_g5v0d10v5 ad=0p pd=0u as=0p ps=0u w=1e+07u l=500000u
X2 a_358_487# a_258_200# w_0_0# w_0_0# sky130_fd_pr__pfet_g5v0d10v5 ad=0p pd=0u as=0p ps=0u w=1e+07u l=500000u
X3 w_0_0# a_258_200# a_358_487# w_0_0# sky130_fd_pr__pfet_g5v0d10v5 ad=0p pd=0u as=0p ps=0u w=1e+07u l=500000u
X4 a_358_487# a_258_200# w_0_0# w_0_0# sky130_fd_pr__pfet_g5v0d10v5 ad=0p pd=0u as=0p ps=0u w=1e+07u l=500000u
X5 a_358_487# a_258_200# w_0_0# w_0_0# sky130_fd_pr__pfet_g5v0d10v5 ad=0p pd=0u as=0p ps=0u w=1e+07u l=500000u
.ends

.subckt armleo_gpio_pfet_driver_x21 a_258_200# w_0_0# a_358_487#
X0 w_0_0# a_258_200# a_358_487# w_0_0# sky130_fd_pr__pfet_g5v0d10v5 ad=0p pd=0u as=0p ps=0u w=1e+07u l=500000u
X1 w_0_0# a_258_200# a_358_487# w_0_0# sky130_fd_pr__pfet_g5v0d10v5 ad=0p pd=0u as=0p ps=0u w=1e+07u l=500000u
X2 w_0_0# a_258_200# a_358_487# w_0_0# sky130_fd_pr__pfet_g5v0d10v5 ad=0p pd=0u as=0p ps=0u w=1e+07u l=500000u
X3 a_358_487# a_258_200# w_0_0# w_0_0# sky130_fd_pr__pfet_g5v0d10v5 ad=0p pd=0u as=0p ps=0u w=1e+07u l=500000u
X4 a_358_487# a_258_200# w_0_0# w_0_0# sky130_fd_pr__pfet_g5v0d10v5 ad=0p pd=0u as=0p ps=0u w=1e+07u l=500000u
X5 a_358_487# a_258_200# w_0_0# w_0_0# sky130_fd_pr__pfet_g5v0d10v5 ad=0p pd=0u as=0p ps=0u w=1e+07u l=500000u
X6 w_0_0# a_258_200# a_358_487# w_0_0# sky130_fd_pr__pfet_g5v0d10v5 ad=0p pd=0u as=0p ps=0u w=1e+07u l=500000u
X7 a_358_487# a_258_200# w_0_0# w_0_0# sky130_fd_pr__pfet_g5v0d10v5 ad=0p pd=0u as=0p ps=0u w=1e+07u l=500000u
X8 a_358_487# a_258_200# w_0_0# w_0_0# sky130_fd_pr__pfet_g5v0d10v5 ad=0p pd=0u as=0p ps=0u w=1e+07u l=500000u
X9 a_358_487# a_258_200# w_0_0# w_0_0# sky130_fd_pr__pfet_g5v0d10v5 ad=0p pd=0u as=0p ps=0u w=1e+07u l=500000u
X10 w_0_0# a_258_200# a_358_487# w_0_0# sky130_fd_pr__pfet_g5v0d10v5 ad=0p pd=0u as=0p ps=0u w=1e+07u l=500000u
X11 a_358_487# a_258_200# w_0_0# w_0_0# sky130_fd_pr__pfet_g5v0d10v5 ad=0p pd=0u as=0p ps=0u w=1e+07u l=500000u
X12 w_0_0# a_258_200# a_358_487# w_0_0# sky130_fd_pr__pfet_g5v0d10v5 ad=0p pd=0u as=0p ps=0u w=1e+07u l=500000u
X13 w_0_0# a_258_200# a_358_487# w_0_0# sky130_fd_pr__pfet_g5v0d10v5 ad=0p pd=0u as=0p ps=0u w=1e+07u l=500000u
X14 w_0_0# a_258_200# a_358_487# w_0_0# sky130_fd_pr__pfet_g5v0d10v5 ad=0p pd=0u as=0p ps=0u w=1e+07u l=500000u
X15 w_0_0# a_258_200# a_358_487# w_0_0# sky130_fd_pr__pfet_g5v0d10v5 ad=0p pd=0u as=0p ps=0u w=1e+07u l=500000u
X16 a_358_487# a_258_200# w_0_0# w_0_0# sky130_fd_pr__pfet_g5v0d10v5 ad=0p pd=0u as=0p ps=0u w=1e+07u l=500000u
X17 a_358_487# a_258_200# w_0_0# w_0_0# sky130_fd_pr__pfet_g5v0d10v5 ad=0p pd=0u as=0p ps=0u w=1e+07u l=500000u
X18 w_0_0# a_258_200# a_358_487# w_0_0# sky130_fd_pr__pfet_g5v0d10v5 ad=0p pd=0u as=0p ps=0u w=1e+07u l=500000u
X19 w_0_0# a_258_200# a_358_487# w_0_0# sky130_fd_pr__pfet_g5v0d10v5 ad=0p pd=0u as=0p ps=0u w=1e+07u l=500000u
X20 a_358_487# a_258_200# w_0_0# w_0_0# sky130_fd_pr__pfet_g5v0d10v5 ad=0p pd=0u as=0p ps=0u w=1e+07u l=500000u
X21 a_358_487# a_258_200# w_0_0# w_0_0# sky130_fd_pr__pfet_g5v0d10v5 ad=0p pd=0u as=0p ps=0u w=1e+07u l=500000u
.ends

.subckt sky130_fd_sc_hd__nand2_4 VGND VPWR Y A B VPB VNB a_27_47#
X0 a_27_47# A Y VNB sky130_fd_pr__nfet_01v8 ad=0p pd=0u as=0p ps=0u w=650000u l=150000u
X1 Y A VPWR VPB sky130_fd_pr__pfet_01v8_hvt ad=0p pd=0u as=0p ps=0u w=1e+06u l=150000u
X2 VPWR B Y VPB sky130_fd_pr__pfet_01v8_hvt ad=0p pd=0u as=0p ps=0u w=1e+06u l=150000u
X3 Y B VPWR VPB sky130_fd_pr__pfet_01v8_hvt ad=0p pd=0u as=0p ps=0u w=1e+06u l=150000u
X4 VPWR B Y VPB sky130_fd_pr__pfet_01v8_hvt ad=0p pd=0u as=0p ps=0u w=1e+06u l=150000u
X5 a_27_47# B VGND VNB sky130_fd_pr__nfet_01v8 ad=0p pd=0u as=0p ps=0u w=650000u l=150000u
X6 a_27_47# B VGND VNB sky130_fd_pr__nfet_01v8 ad=0p pd=0u as=0p ps=0u w=650000u l=150000u
X7 VPWR A Y VPB sky130_fd_pr__pfet_01v8_hvt ad=0p pd=0u as=0p ps=0u w=1e+06u l=150000u
X8 VGND B a_27_47# VNB sky130_fd_pr__nfet_01v8 ad=0p pd=0u as=0p ps=0u w=650000u l=150000u
X9 Y A a_27_47# VNB sky130_fd_pr__nfet_01v8 ad=0p pd=0u as=0p ps=0u w=650000u l=150000u
X10 Y A VPWR VPB sky130_fd_pr__pfet_01v8_hvt ad=0p pd=0u as=0p ps=0u w=1e+06u l=150000u
X11 Y A a_27_47# VNB sky130_fd_pr__nfet_01v8 ad=0p pd=0u as=0p ps=0u w=650000u l=150000u
X12 VPWR A Y VPB sky130_fd_pr__pfet_01v8_hvt ad=0p pd=0u as=0p ps=0u w=1e+06u l=150000u
X13 Y B VPWR VPB sky130_fd_pr__pfet_01v8_hvt ad=0p pd=0u as=0p ps=0u w=1e+06u l=150000u
X14 VGND B a_27_47# VNB sky130_fd_pr__nfet_01v8 ad=0p pd=0u as=0p ps=0u w=650000u l=150000u
X15 a_27_47# A Y VNB sky130_fd_pr__nfet_01v8 ad=0p pd=0u as=0p ps=0u w=650000u l=150000u
.ends

.subckt sky130_fd_sc_hvl__inv_4 VGND VNB VPWR VPB Y A
X0 VPWR A Y VPB sky130_fd_pr__pfet_g5v0d10v5 ad=0p pd=0u as=0p ps=0u w=1.5e+06u l=500000u
X1 Y A VGND VNB sky130_fd_pr__nfet_g5v0d10v5 ad=0p pd=0u as=0p ps=0u w=750000u l=500000u
X2 VGND A Y VNB sky130_fd_pr__nfet_g5v0d10v5 ad=0p pd=0u as=0p ps=0u w=750000u l=500000u
X3 Y A VPWR VPB sky130_fd_pr__pfet_g5v0d10v5 ad=0p pd=0u as=0p ps=0u w=1.5e+06u l=500000u
X4 VGND A Y VNB sky130_fd_pr__nfet_g5v0d10v5 ad=0p pd=0u as=0p ps=0u w=750000u l=500000u
X5 Y A VPWR VPB sky130_fd_pr__pfet_g5v0d10v5 ad=0p pd=0u as=0p ps=0u w=1.5e+06u l=500000u
X6 Y A VGND VNB sky130_fd_pr__nfet_g5v0d10v5 ad=0p pd=0u as=0p ps=0u w=750000u l=500000u
X7 VPWR A Y VPB sky130_fd_pr__pfet_g5v0d10v5 ad=0p pd=0u as=0p ps=0u w=1.5e+06u l=500000u
.ends

.subckt sky130_fd_sc_hd__inv_4 VPWR VGND Y A VPB VNB
X0 Y A VPWR VPB sky130_fd_pr__pfet_01v8_hvt ad=0p pd=0u as=0p ps=0u w=1e+06u l=150000u
X1 Y A VGND VNB sky130_fd_pr__nfet_01v8 ad=0p pd=0u as=0p ps=0u w=650000u l=150000u
X2 VPWR A Y VPB sky130_fd_pr__pfet_01v8_hvt ad=0p pd=0u as=0p ps=0u w=1e+06u l=150000u
X3 VGND A Y VNB sky130_fd_pr__nfet_01v8 ad=0p pd=0u as=0p ps=0u w=650000u l=150000u
X4 VGND A Y VNB sky130_fd_pr__nfet_01v8 ad=0p pd=0u as=0p ps=0u w=650000u l=150000u
X5 Y A VPWR VPB sky130_fd_pr__pfet_01v8_hvt ad=0p pd=0u as=0p ps=0u w=1e+06u l=150000u
X6 Y A VGND VNB sky130_fd_pr__nfet_01v8 ad=0p pd=0u as=0p ps=0u w=650000u l=150000u
X7 VPWR A Y VPB sky130_fd_pr__pfet_01v8_hvt ad=0p pd=0u as=0p ps=0u w=1e+06u l=150000u
.ends

.subckt armleo_gpio_ggnmos IN VGND NWELLRING
X0 VGND VGND IN VGND sky130_fd_pr__esd_nfet_g5v0d10v5 ad=0p pd=0u as=0p ps=0u w=5.4e+06u l=600000u
X1 IN VGND VGND VGND sky130_fd_pr__esd_nfet_g5v0d10v5 ad=0p pd=0u as=0p ps=0u w=5.4e+06u l=600000u
X2 IN VGND VGND VGND sky130_fd_pr__esd_nfet_g5v0d10v5 ad=0p pd=0u as=0p ps=0u w=5.4e+06u l=600000u
X3 VGND VGND IN VGND sky130_fd_pr__esd_nfet_g5v0d10v5 ad=0p pd=0u as=0p ps=0u w=5.4e+06u l=600000u
X4 VGND VGND IN VGND sky130_fd_pr__esd_nfet_g5v0d10v5 ad=0p pd=0u as=0p ps=0u w=5.4e+06u l=600000u
X5 VGND VGND IN VGND sky130_fd_pr__esd_nfet_g5v0d10v5 ad=0p pd=0u as=0p ps=0u w=5.4e+06u l=600000u
X6 IN VGND VGND VGND sky130_fd_pr__esd_nfet_g5v0d10v5 ad=0p pd=0u as=0p ps=0u w=5.4e+06u l=600000u
X7 IN VGND VGND VGND sky130_fd_pr__esd_nfet_g5v0d10v5 ad=0p pd=0u as=0p ps=0u w=5.4e+06u l=600000u
X8 IN VGND VGND VGND sky130_fd_pr__esd_nfet_g5v0d10v5 ad=0p pd=0u as=0p ps=0u w=5.4e+06u l=600000u
X9 IN VGND VGND VGND sky130_fd_pr__esd_nfet_g5v0d10v5 ad=0p pd=0u as=0p ps=0u w=5.4e+06u l=600000u
X10 VGND VGND IN VGND sky130_fd_pr__esd_nfet_g5v0d10v5 ad=0p pd=0u as=0p ps=0u w=5.4e+06u l=600000u
X11 VGND VGND IN VGND sky130_fd_pr__esd_nfet_g5v0d10v5 ad=0p pd=0u as=0p ps=0u w=5.4e+06u l=600000u
.ends

.subckt armleo_gpio_pfet_driver_x9 a_258_200# w_0_0# a_358_487#
X0 w_0_0# a_258_200# a_358_487# w_0_0# sky130_fd_pr__pfet_g5v0d10v5 ad=0p pd=0u as=0p ps=0u w=1e+07u l=500000u
X1 w_0_0# a_258_200# a_358_487# w_0_0# sky130_fd_pr__pfet_g5v0d10v5 ad=0p pd=0u as=0p ps=0u w=1e+07u l=500000u
X2 a_358_487# a_258_200# w_0_0# w_0_0# sky130_fd_pr__pfet_g5v0d10v5 ad=0p pd=0u as=0p ps=0u w=1e+07u l=500000u
X3 a_358_487# a_258_200# w_0_0# w_0_0# sky130_fd_pr__pfet_g5v0d10v5 ad=0p pd=0u as=0p ps=0u w=1e+07u l=500000u
X4 w_0_0# a_258_200# a_358_487# w_0_0# sky130_fd_pr__pfet_g5v0d10v5 ad=0p pd=0u as=0p ps=0u w=1e+07u l=500000u
X5 a_358_487# a_258_200# w_0_0# w_0_0# sky130_fd_pr__pfet_g5v0d10v5 ad=0p pd=0u as=0p ps=0u w=1e+07u l=500000u
X6 w_0_0# a_258_200# a_358_487# w_0_0# sky130_fd_pr__pfet_g5v0d10v5 ad=0p pd=0u as=0p ps=0u w=1e+07u l=500000u
X7 a_358_487# a_258_200# w_0_0# w_0_0# sky130_fd_pr__pfet_g5v0d10v5 ad=0p pd=0u as=0p ps=0u w=1e+07u l=500000u
X8 a_358_487# a_258_200# w_0_0# w_0_0# sky130_fd_pr__pfet_g5v0d10v5 ad=0p pd=0u as=0p ps=0u w=1e+07u l=500000u
.ends

.subckt sky130_fd_sc_hd__nor2_4 VGND VPWR Y A B VPB VNB a_27_297#
X0 VPWR A a_27_297# VPB sky130_fd_pr__pfet_01v8_hvt ad=0p pd=0u as=0p ps=0u w=1e+06u l=150000u
X1 Y A VGND VNB sky130_fd_pr__nfet_01v8 ad=0p pd=0u as=0p ps=0u w=650000u l=150000u
X2 a_27_297# A VPWR VPB sky130_fd_pr__pfet_01v8_hvt ad=0p pd=0u as=0p ps=0u w=1e+06u l=150000u
X3 VGND A Y VNB sky130_fd_pr__nfet_01v8 ad=0p pd=0u as=0p ps=0u w=650000u l=150000u
X4 a_27_297# B Y VPB sky130_fd_pr__pfet_01v8_hvt ad=0p pd=0u as=0p ps=0u w=1e+06u l=150000u
X5 Y A VGND VNB sky130_fd_pr__nfet_01v8 ad=0p pd=0u as=0p ps=0u w=650000u l=150000u
X6 VGND A Y VNB sky130_fd_pr__nfet_01v8 ad=0p pd=0u as=0p ps=0u w=650000u l=150000u
X7 VGND B Y VNB sky130_fd_pr__nfet_01v8 ad=0p pd=0u as=0p ps=0u w=650000u l=150000u
X8 VGND B Y VNB sky130_fd_pr__nfet_01v8 ad=0p pd=0u as=0p ps=0u w=650000u l=150000u
X9 Y B a_27_297# VPB sky130_fd_pr__pfet_01v8_hvt ad=0p pd=0u as=0p ps=0u w=1e+06u l=150000u
X10 VPWR A a_27_297# VPB sky130_fd_pr__pfet_01v8_hvt ad=0p pd=0u as=0p ps=0u w=1e+06u l=150000u
X11 Y B VGND VNB sky130_fd_pr__nfet_01v8 ad=0p pd=0u as=0p ps=0u w=650000u l=150000u
X12 Y B VGND VNB sky130_fd_pr__nfet_01v8 ad=0p pd=0u as=0p ps=0u w=650000u l=150000u
X13 a_27_297# B Y VPB sky130_fd_pr__pfet_01v8_hvt ad=0p pd=0u as=0p ps=0u w=1e+06u l=150000u
X14 Y B a_27_297# VPB sky130_fd_pr__pfet_01v8_hvt ad=0p pd=0u as=0p ps=0u w=1e+06u l=150000u
X15 a_27_297# A VPWR VPB sky130_fd_pr__pfet_01v8_hvt ad=0p pd=0u as=0p ps=0u w=1e+06u l=150000u
.ends

.subckt sky130_fd_sc_hvl__inv_16 Y A VNB VPWR VPB VGND
X0 VPWR A Y VPB sky130_fd_pr__pfet_g5v0d10v5 ad=0p pd=0u as=0p ps=0u w=1.5e+06u l=500000u
X1 Y A VPWR VPB sky130_fd_pr__pfet_g5v0d10v5 ad=0p pd=0u as=0p ps=0u w=1.5e+06u l=500000u
X2 VGND A Y VNB sky130_fd_pr__nfet_g5v0d10v5 ad=0p pd=0u as=0p ps=0u w=750000u l=500000u
X3 VPWR A Y VPB sky130_fd_pr__pfet_g5v0d10v5 ad=0p pd=0u as=0p ps=0u w=1.5e+06u l=500000u
X4 Y A VGND VNB sky130_fd_pr__nfet_g5v0d10v5 ad=0p pd=0u as=0p ps=0u w=750000u l=500000u
X5 VGND A Y VNB sky130_fd_pr__nfet_g5v0d10v5 ad=0p pd=0u as=0p ps=0u w=750000u l=500000u
X6 VPWR A Y VPB sky130_fd_pr__pfet_g5v0d10v5 ad=0p pd=0u as=0p ps=0u w=1.5e+06u l=500000u
X7 Y A VPWR VPB sky130_fd_pr__pfet_g5v0d10v5 ad=0p pd=0u as=0p ps=0u w=1.5e+06u l=500000u
X8 VGND A Y VNB sky130_fd_pr__nfet_g5v0d10v5 ad=0p pd=0u as=0p ps=0u w=750000u l=500000u
X9 Y A VGND VNB sky130_fd_pr__nfet_g5v0d10v5 ad=0p pd=0u as=0p ps=0u w=750000u l=500000u
X10 VPWR A Y VPB sky130_fd_pr__pfet_g5v0d10v5 ad=0p pd=0u as=0p ps=0u w=1.5e+06u l=500000u
X11 VPWR A Y VPB sky130_fd_pr__pfet_g5v0d10v5 ad=0p pd=0u as=0p ps=0u w=1.5e+06u l=500000u
X12 VGND A Y VNB sky130_fd_pr__nfet_g5v0d10v5 ad=0p pd=0u as=0p ps=0u w=750000u l=500000u
X13 VGND A Y VNB sky130_fd_pr__nfet_g5v0d10v5 ad=0p pd=0u as=0p ps=0u w=750000u l=500000u
X14 VPWR A Y VPB sky130_fd_pr__pfet_g5v0d10v5 ad=0p pd=0u as=0p ps=0u w=1.5e+06u l=500000u
X15 Y A VPWR VPB sky130_fd_pr__pfet_g5v0d10v5 ad=0p pd=0u as=0p ps=0u w=1.5e+06u l=500000u
X16 VGND A Y VNB sky130_fd_pr__nfet_g5v0d10v5 ad=0p pd=0u as=0p ps=0u w=750000u l=500000u
X17 Y A VGND VNB sky130_fd_pr__nfet_g5v0d10v5 ad=0p pd=0u as=0p ps=0u w=750000u l=500000u
X18 VPWR A Y VPB sky130_fd_pr__pfet_g5v0d10v5 ad=0p pd=0u as=0p ps=0u w=1.5e+06u l=500000u
X19 Y A VPWR VPB sky130_fd_pr__pfet_g5v0d10v5 ad=0p pd=0u as=0p ps=0u w=1.5e+06u l=500000u
X20 Y A VGND VNB sky130_fd_pr__nfet_g5v0d10v5 ad=0p pd=0u as=0p ps=0u w=750000u l=500000u
X21 VGND A Y VNB sky130_fd_pr__nfet_g5v0d10v5 ad=0p pd=0u as=0p ps=0u w=750000u l=500000u
X22 Y A VPWR VPB sky130_fd_pr__pfet_g5v0d10v5 ad=0p pd=0u as=0p ps=0u w=1.5e+06u l=500000u
X23 Y A VPWR VPB sky130_fd_pr__pfet_g5v0d10v5 ad=0p pd=0u as=0p ps=0u w=1.5e+06u l=500000u
X24 Y A VGND VNB sky130_fd_pr__nfet_g5v0d10v5 ad=0p pd=0u as=0p ps=0u w=750000u l=500000u
X25 VPWR A Y VPB sky130_fd_pr__pfet_g5v0d10v5 ad=0p pd=0u as=0p ps=0u w=1.5e+06u l=500000u
X26 Y A VGND VNB sky130_fd_pr__nfet_g5v0d10v5 ad=0p pd=0u as=0p ps=0u w=750000u l=500000u
X27 Y A VPWR VPB sky130_fd_pr__pfet_g5v0d10v5 ad=0p pd=0u as=0p ps=0u w=1.5e+06u l=500000u
X28 VGND A Y VNB sky130_fd_pr__nfet_g5v0d10v5 ad=0p pd=0u as=0p ps=0u w=750000u l=500000u
X29 Y A VPWR VPB sky130_fd_pr__pfet_g5v0d10v5 ad=0p pd=0u as=0p ps=0u w=1.5e+06u l=500000u
X30 Y A VGND VNB sky130_fd_pr__nfet_g5v0d10v5 ad=0p pd=0u as=0p ps=0u w=750000u l=500000u
X31 Y A VGND VNB sky130_fd_pr__nfet_g5v0d10v5 ad=0p pd=0u as=0p ps=0u w=750000u l=500000u
.ends

.subckt armleo_gpio_nfet_driver_x6 gate vssio pad
X0 vssio gate pad vssio sky130_fd_pr__nfet_g5v0d10v5 ad=0p pd=0u as=0p ps=0u w=4.5e+06u l=500000u
X1 pad gate vssio vssio sky130_fd_pr__nfet_g5v0d10v5 ad=0p pd=0u as=0p ps=0u w=4.5e+06u l=500000u
X2 vssio gate pad vssio sky130_fd_pr__nfet_g5v0d10v5 ad=0p pd=0u as=0p ps=0u w=4.5e+06u l=500000u
X3 pad gate vssio vssio sky130_fd_pr__nfet_g5v0d10v5 ad=0p pd=0u as=0p ps=0u w=4.5e+06u l=500000u
X4 vssio gate pad vssio sky130_fd_pr__nfet_g5v0d10v5 ad=0p pd=0u as=0p ps=0u w=4.5e+06u l=500000u
X5 pad gate vssio vssio sky130_fd_pr__nfet_g5v0d10v5 ad=0p pd=0u as=0p ps=0u w=4.5e+06u l=500000u
.ends

.subckt sky130_fd_pr__res_generic_l1_J5CL4C li_n100_1000# li_n100_n1000# li_n100_n1200#
R0 li_n100_n1200# li_n100_1000# sky130_fd_pr__res_generic_l1 w=1e+06u l=1e+07u
.ends

.subckt armleo_gpio_nfet_driver_x21 gate vssio pad
X0 vssio gate pad vssio sky130_fd_pr__nfet_g5v0d10v5 ad=0p pd=0u as=0p ps=0u w=4.5e+06u l=500000u
X1 vssio gate pad vssio sky130_fd_pr__nfet_g5v0d10v5 ad=0p pd=0u as=0p ps=0u w=4.5e+06u l=500000u
X2 pad gate vssio vssio sky130_fd_pr__nfet_g5v0d10v5 ad=0p pd=0u as=0p ps=0u w=4.5e+06u l=500000u
X3 vssio gate pad vssio sky130_fd_pr__nfet_g5v0d10v5 ad=0p pd=0u as=0p ps=0u w=4.5e+06u l=500000u
X4 pad gate vssio vssio sky130_fd_pr__nfet_g5v0d10v5 ad=0p pd=0u as=0p ps=0u w=4.5e+06u l=500000u
X5 vssio gate pad vssio sky130_fd_pr__nfet_g5v0d10v5 ad=0p pd=0u as=0p ps=0u w=4.5e+06u l=500000u
X6 vssio gate pad vssio sky130_fd_pr__nfet_g5v0d10v5 ad=0p pd=0u as=0p ps=0u w=4.5e+06u l=500000u
X7 pad gate vssio vssio sky130_fd_pr__nfet_g5v0d10v5 ad=0p pd=0u as=0p ps=0u w=4.5e+06u l=500000u
X8 pad gate vssio vssio sky130_fd_pr__nfet_g5v0d10v5 ad=0p pd=0u as=0p ps=0u w=4.5e+06u l=500000u
X9 pad gate vssio vssio sky130_fd_pr__nfet_g5v0d10v5 ad=0p pd=0u as=0p ps=0u w=4.5e+06u l=500000u
X10 pad gate vssio vssio sky130_fd_pr__nfet_g5v0d10v5 ad=0p pd=0u as=0p ps=0u w=4.5e+06u l=500000u
X11 vssio gate pad vssio sky130_fd_pr__nfet_g5v0d10v5 ad=0p pd=0u as=0p ps=0u w=4.5e+06u l=500000u
X12 vssio gate pad vssio sky130_fd_pr__nfet_g5v0d10v5 ad=0p pd=0u as=0p ps=0u w=4.5e+06u l=500000u
X13 pad gate vssio vssio sky130_fd_pr__nfet_g5v0d10v5 ad=0p pd=0u as=0p ps=0u w=4.5e+06u l=500000u
X14 vssio gate pad vssio sky130_fd_pr__nfet_g5v0d10v5 ad=0p pd=0u as=0p ps=0u w=4.5e+06u l=500000u
X15 pad gate vssio vssio sky130_fd_pr__nfet_g5v0d10v5 ad=0p pd=0u as=0p ps=0u w=4.5e+06u l=500000u
X16 pad gate vssio vssio sky130_fd_pr__nfet_g5v0d10v5 ad=0p pd=0u as=0p ps=0u w=4.5e+06u l=500000u
X17 vssio gate pad vssio sky130_fd_pr__nfet_g5v0d10v5 ad=0p pd=0u as=0p ps=0u w=4.5e+06u l=500000u
X18 vssio gate pad vssio sky130_fd_pr__nfet_g5v0d10v5 ad=0p pd=0u as=0p ps=0u w=4.5e+06u l=500000u
X19 pad gate vssio vssio sky130_fd_pr__nfet_g5v0d10v5 ad=0p pd=0u as=0p ps=0u w=4.5e+06u l=500000u
X20 pad gate vssio vssio sky130_fd_pr__nfet_g5v0d10v5 ad=0p pd=0u as=0p ps=0u w=4.5e+06u l=500000u
.ends

.subckt armleo_gpio_nfet_driver_x9 gate vssio pad
X0 vssio gate pad vssio sky130_fd_pr__nfet_g5v0d10v5 ad=0p pd=0u as=0p ps=0u w=4.5e+06u l=500000u
X1 pad gate vssio vssio sky130_fd_pr__nfet_g5v0d10v5 ad=0p pd=0u as=0p ps=0u w=4.5e+06u l=500000u
X2 pad gate vssio vssio sky130_fd_pr__nfet_g5v0d10v5 ad=0p pd=0u as=0p ps=0u w=4.5e+06u l=500000u
X3 vssio gate pad vssio sky130_fd_pr__nfet_g5v0d10v5 ad=0p pd=0u as=0p ps=0u w=4.5e+06u l=500000u
X4 pad gate vssio vssio sky130_fd_pr__nfet_g5v0d10v5 ad=0p pd=0u as=0p ps=0u w=4.5e+06u l=500000u
X5 pad gate vssio vssio sky130_fd_pr__nfet_g5v0d10v5 ad=0p pd=0u as=0p ps=0u w=4.5e+06u l=500000u
X6 vssio gate pad vssio sky130_fd_pr__nfet_g5v0d10v5 ad=0p pd=0u as=0p ps=0u w=4.5e+06u l=500000u
X7 vssio gate pad vssio sky130_fd_pr__nfet_g5v0d10v5 ad=0p pd=0u as=0p ps=0u w=4.5e+06u l=500000u
X8 pad gate vssio vssio sky130_fd_pr__nfet_g5v0d10v5 ad=0p pd=0u as=0p ps=0u w=4.5e+06u l=500000u
.ends

.subckt sky130_fd_sc_hvl__buf_16 VGND VNB X VPWR VPB A a_183_141#
X0 VPWR A a_183_141# VPB sky130_fd_pr__pfet_g5v0d10v5 ad=0p pd=0u as=0p ps=0u w=1.5e+06u l=500000u
X1 X a_183_141# VPWR VPB sky130_fd_pr__pfet_g5v0d10v5 ad=0p pd=0u as=0p ps=0u w=1.5e+06u l=500000u
X2 VGND A a_183_141# VNB sky130_fd_pr__nfet_g5v0d10v5 ad=0p pd=0u as=0p ps=0u w=750000u l=500000u
X3 VPWR a_183_141# X VPB sky130_fd_pr__pfet_g5v0d10v5 ad=0p pd=0u as=0p ps=0u w=1.5e+06u l=500000u
X4 X a_183_141# VGND VNB sky130_fd_pr__nfet_g5v0d10v5 ad=0p pd=0u as=0p ps=0u w=750000u l=500000u
X5 a_183_141# A VPWR VPB sky130_fd_pr__pfet_g5v0d10v5 ad=0p pd=0u as=0p ps=0u w=1.5e+06u l=500000u
X6 VGND a_183_141# X VNB sky130_fd_pr__nfet_g5v0d10v5 ad=0p pd=0u as=0p ps=0u w=750000u l=500000u
X7 X a_183_141# VGND VNB sky130_fd_pr__nfet_g5v0d10v5 ad=0p pd=0u as=0p ps=0u w=750000u l=500000u
X8 X a_183_141# VPWR VPB sky130_fd_pr__pfet_g5v0d10v5 ad=0p pd=0u as=0p ps=0u w=1.5e+06u l=500000u
X9 VPWR a_183_141# X VPB sky130_fd_pr__pfet_g5v0d10v5 ad=0p pd=0u as=0p ps=0u w=1.5e+06u l=500000u
X10 VGND A a_183_141# VNB sky130_fd_pr__nfet_g5v0d10v5 ad=0p pd=0u as=0p ps=0u w=750000u l=500000u
X11 X a_183_141# VGND VNB sky130_fd_pr__nfet_g5v0d10v5 ad=0p pd=0u as=0p ps=0u w=750000u l=500000u
X12 a_183_141# A VPWR VPB sky130_fd_pr__pfet_g5v0d10v5 ad=0p pd=0u as=0p ps=0u w=1.5e+06u l=500000u
X13 VPWR a_183_141# X VPB sky130_fd_pr__pfet_g5v0d10v5 ad=0p pd=0u as=0p ps=0u w=1.5e+06u l=500000u
X14 VPWR a_183_141# X VPB sky130_fd_pr__pfet_g5v0d10v5 ad=0p pd=0u as=0p ps=0u w=1.5e+06u l=500000u
X15 VGND a_183_141# X VNB sky130_fd_pr__nfet_g5v0d10v5 ad=0p pd=0u as=0p ps=0u w=750000u l=500000u
X16 a_183_141# A VGND VNB sky130_fd_pr__nfet_g5v0d10v5 ad=0p pd=0u as=0p ps=0u w=750000u l=500000u
X17 X a_183_141# VPWR VPB sky130_fd_pr__pfet_g5v0d10v5 ad=0p pd=0u as=0p ps=0u w=1.5e+06u l=500000u
X18 X a_183_141# VPWR VPB sky130_fd_pr__pfet_g5v0d10v5 ad=0p pd=0u as=0p ps=0u w=1.5e+06u l=500000u
X19 X a_183_141# VGND VNB sky130_fd_pr__nfet_g5v0d10v5 ad=0p pd=0u as=0p ps=0u w=750000u l=500000u
X20 VPWR a_183_141# X VPB sky130_fd_pr__pfet_g5v0d10v5 ad=0p pd=0u as=0p ps=0u w=1.5e+06u l=500000u
X21 VGND a_183_141# X VNB sky130_fd_pr__nfet_g5v0d10v5 ad=0p pd=0u as=0p ps=0u w=750000u l=500000u
X22 a_183_141# A VGND VNB sky130_fd_pr__nfet_g5v0d10v5 ad=0p pd=0u as=0p ps=0u w=750000u l=500000u
X23 VPWR a_183_141# X VPB sky130_fd_pr__pfet_g5v0d10v5 ad=0p pd=0u as=0p ps=0u w=1.5e+06u l=500000u
X24 VGND a_183_141# X VNB sky130_fd_pr__nfet_g5v0d10v5 ad=0p pd=0u as=0p ps=0u w=750000u l=500000u
X25 VGND a_183_141# X VNB sky130_fd_pr__nfet_g5v0d10v5 ad=0p pd=0u as=0p ps=0u w=750000u l=500000u
X26 a_183_141# A VPWR VPB sky130_fd_pr__pfet_g5v0d10v5 ad=0p pd=0u as=0p ps=0u w=1.5e+06u l=500000u
X27 X a_183_141# VPWR VPB sky130_fd_pr__pfet_g5v0d10v5 ad=0p pd=0u as=0p ps=0u w=1.5e+06u l=500000u
X28 X a_183_141# VGND VNB sky130_fd_pr__nfet_g5v0d10v5 ad=0p pd=0u as=0p ps=0u w=750000u l=500000u
X29 VPWR A a_183_141# VPB sky130_fd_pr__pfet_g5v0d10v5 ad=0p pd=0u as=0p ps=0u w=1.5e+06u l=500000u
X30 X a_183_141# VGND VNB sky130_fd_pr__nfet_g5v0d10v5 ad=0p pd=0u as=0p ps=0u w=750000u l=500000u
X31 VGND a_183_141# X VNB sky130_fd_pr__nfet_g5v0d10v5 ad=0p pd=0u as=0p ps=0u w=750000u l=500000u
X32 VPWR a_183_141# X VPB sky130_fd_pr__pfet_g5v0d10v5 ad=0p pd=0u as=0p ps=0u w=1.5e+06u l=500000u
X33 X a_183_141# VPWR VPB sky130_fd_pr__pfet_g5v0d10v5 ad=0p pd=0u as=0p ps=0u w=1.5e+06u l=500000u
X34 VGND a_183_141# X VNB sky130_fd_pr__nfet_g5v0d10v5 ad=0p pd=0u as=0p ps=0u w=750000u l=500000u
X35 a_183_141# A VGND VNB sky130_fd_pr__nfet_g5v0d10v5 ad=0p pd=0u as=0p ps=0u w=750000u l=500000u
X36 VPWR A a_183_141# VPB sky130_fd_pr__pfet_g5v0d10v5 ad=0p pd=0u as=0p ps=0u w=1.5e+06u l=500000u
X37 X a_183_141# VGND VNB sky130_fd_pr__nfet_g5v0d10v5 ad=0p pd=0u as=0p ps=0u w=750000u l=500000u
X38 X a_183_141# VPWR VPB sky130_fd_pr__pfet_g5v0d10v5 ad=0p pd=0u as=0p ps=0u w=1.5e+06u l=500000u
X39 VGND A a_183_141# VNB sky130_fd_pr__nfet_g5v0d10v5 ad=0p pd=0u as=0p ps=0u w=750000u l=500000u
X40 VPWR a_183_141# X VPB sky130_fd_pr__pfet_g5v0d10v5 ad=0p pd=0u as=0p ps=0u w=1.5e+06u l=500000u
X41 VGND a_183_141# X VNB sky130_fd_pr__nfet_g5v0d10v5 ad=0p pd=0u as=0p ps=0u w=750000u l=500000u
X42 X a_183_141# VPWR VPB sky130_fd_pr__pfet_g5v0d10v5 ad=0p pd=0u as=0p ps=0u w=1.5e+06u l=500000u
X43 X a_183_141# VGND VNB sky130_fd_pr__nfet_g5v0d10v5 ad=0p pd=0u as=0p ps=0u w=750000u l=500000u
.ends

.subckt armleo_gpio vddio vssio vss vdd out_l in pad oe_l strong_enable med_enable
+ armleo_gpio_lv2hv_1/A sky130_fd_sc_hvl__inv_4_0/Y armleo_gpio_lv2hv_4/a_217_2223#
+ sky130_fd_sc_hvl__inv_4_4/Y sky130_fd_sc_hd__nor2_4_0/a_27_297# armleo_gpio_lv2hv_5/a_217_2223#
+ sky130_fd_sc_hvl__inv_16_2/Y armleo_gpio_lv2hv_4/Y armleo_gpio_lv2hv_3/Y armleo_gpio_lv2hv_1/A_N
+ sky130_fd_sc_hvl__inv_16_5/Y armleo_gpio_lv2hv_3/A_N sky130_fd_sc_hvl__inv_4_2/Y
+ sky130_fd_sc_hvl__inv_16_4/Y armleo_gpio_lv2hv_5/Y armleo_gpio_lv2hv_5/A sky130_fd_sc_hd__inv_4_4/Y
+ sky130_fd_sc_hd__inv_4_1/A armleo_gpio_lv2hv_3/A sky130_fd_sc_hvl__inv_16_0/Y armleo_gpio_lv2hv_1/Y
+ armleo_gpio_lv2hv_2/Y armleo_gpio_lv2hv_2/A armleo_gpio_lv2hv_4/A sky130_fd_sc_hd__nand2_4_2/a_27_47#
+ sky130_fd_sc_hd__nor2_4_1/a_27_297# sky130_fd_sc_hvl__inv_16_1/Y armleo_gpio_lv2hv_4/A_N
+ sky130_fd_sc_hd__inv_4_5/Y armleo_gpio_lv2hv_0/A_N sky130_fd_sc_hd__inv_4_1/Y sky130_fd_pr__res_generic_l1_J5CL4C_0/li_n100_n1000#
+ armleo_gpio_lv2hv_2/A_N sky130_fd_sc_hvl__inv_4_1/Y armleo_gpio_lv2hv_0/A sky130_fd_sc_hvl__inv_4_3/Y
+ armleo_gpio_lv2hv_0/a_481_358# sky130_fd_sc_hd__nor2_4_2/a_27_297# armleo_gpio_lv2hv_0/a_481_2165#
+ sky130_fd_sc_hvl__buf_16_0/A armleo_gpio_lv2hv_1/a_481_2165# sky130_fd_sc_hvl__inv_4_5/Y
+ sky130_fd_sc_hvl__inv_16_3/Y sky130_fd_sc_hd__inv_4_4/A sky130_fd_sc_hd__nand2_4_3/a_27_47#
+ armleo_gpio_lv2hv_1/a_481_358# armleo_gpio_lv2hv_2/a_481_2165# armleo_gpio_lv2hv_3/a_481_2165#
+ sky130_fd_sc_hvl__buf_16_0/a_183_141# armleo_gpio_lv2hv_4/a_481_2165# armleo_gpio_lv2hv_5/a_481_2165#
+ armleo_gpio_lv2hv_2/a_481_358# sky130_fd_sc_hd__nand2_4_0/a_27_47# armleo_gpio_lv2hv_0/Y
+ armleo_gpio_lv2hv_3/a_481_358# armleo_gpio_lv2hv_5/A_N armleo_gpio_lv2hv_4/a_481_358#
+ sky130_fd_sc_hd__nand2_4_4/a_27_47# armleo_gpio_lv2hv_0/a_217_2223# armleo_gpio_lv2hv_5/a_481_358#
+ armleo_gpio_lv2hv_1/a_217_2223# armleo_gpio_lv2hv_2/a_217_2223# sky130_fd_sc_hd__nand2_4_1/a_27_47#
+ VSUBS armleo_gpio_lv2hv_3/a_217_2223#
Xarmleo_gpio_lv2hv_4 armleo_gpio_lv2hv_4/A_N armleo_gpio_lv2hv_4/A vssio vddio armleo_gpio_lv2hv_4/Y
+ vddio armleo_gpio_lv2hv_4/a_217_2223# armleo_gpio_lv2hv_4/a_481_358# armleo_gpio_lv2hv_4/a_481_2165#
+ armleo_gpio_lv2hv
Xarmleo_gpio_lv2hv_5 armleo_gpio_lv2hv_5/A_N armleo_gpio_lv2hv_5/A vssio vddio armleo_gpio_lv2hv_5/Y
+ vddio armleo_gpio_lv2hv_5/a_217_2223# armleo_gpio_lv2hv_5/a_481_358# armleo_gpio_lv2hv_5/a_481_2165#
+ armleo_gpio_lv2hv
Xarmleo_gpio_pfet_driver_x6_0 sky130_fd_sc_hvl__inv_16_1/Y vddio pad armleo_gpio_pfet_driver_x6
Xarmleo_gpio_pfet_driver_x21_0 sky130_fd_sc_hvl__inv_16_5/Y vddio pad armleo_gpio_pfet_driver_x21
Xsky130_fd_sc_hd__nand2_4_0 vss vdd sky130_fd_sc_hd__inv_4_1/A oe_l strong_enable
+ vdd vss sky130_fd_sc_hd__nand2_4_0/a_27_47# sky130_fd_sc_hd__nand2_4
Xsky130_fd_sc_hvl__inv_4_0 vssio vssio vddio vddio sky130_fd_sc_hvl__inv_4_0/Y armleo_gpio_lv2hv_2/Y
+ sky130_fd_sc_hvl__inv_4
Xsky130_fd_sc_hd__nand2_4_1 vss vdd armleo_gpio_lv2hv_1/A sky130_fd_sc_hd__inv_4_1/Y
+ out_l vdd vss sky130_fd_sc_hd__nand2_4_1/a_27_47# sky130_fd_sc_hd__nand2_4
Xsky130_fd_sc_hvl__inv_4_1 vssio vssio vddio vddio sky130_fd_sc_hvl__inv_4_1/Y armleo_gpio_lv2hv_3/Y
+ sky130_fd_sc_hvl__inv_4
Xsky130_fd_sc_hd__nand2_4_3 vss vdd sky130_fd_sc_hd__inv_4_4/A oe_l med_enable vdd
+ vss sky130_fd_sc_hd__nand2_4_3/a_27_47# sky130_fd_sc_hd__nand2_4
Xsky130_fd_sc_hd__nand2_4_2 vss vdd armleo_gpio_lv2hv_2/A sky130_fd_sc_hd__inv_4_4/Y
+ out_l vdd vss sky130_fd_sc_hd__nand2_4_2/a_27_47# sky130_fd_sc_hd__nand2_4
Xsky130_fd_sc_hvl__inv_4_2 vssio vssio vddio vddio sky130_fd_sc_hvl__inv_4_2/Y armleo_gpio_lv2hv_4/Y
+ sky130_fd_sc_hvl__inv_4
Xsky130_fd_sc_hd__nand2_4_4 vss vdd armleo_gpio_lv2hv_3/A oe_l out_l vdd vss sky130_fd_sc_hd__nand2_4_4/a_27_47#
+ sky130_fd_sc_hd__nand2_4
Xsky130_fd_sc_hvl__inv_4_4 vssio vssio vddio vddio sky130_fd_sc_hvl__inv_4_4/Y armleo_gpio_lv2hv_0/Y
+ sky130_fd_sc_hvl__inv_4
Xsky130_fd_sc_hvl__inv_4_3 vssio vssio vddio vddio sky130_fd_sc_hvl__inv_4_3/Y armleo_gpio_lv2hv_5/Y
+ sky130_fd_sc_hvl__inv_4
Xsky130_fd_sc_hd__inv_4_0 vdd vss armleo_gpio_lv2hv_5/A_N armleo_gpio_lv2hv_5/A vdd
+ vss sky130_fd_sc_hd__inv_4
Xsky130_fd_sc_hvl__inv_4_5 vssio vssio vddio vddio sky130_fd_sc_hvl__inv_4_5/Y armleo_gpio_lv2hv_1/Y
+ sky130_fd_sc_hvl__inv_4
Xsky130_fd_sc_hd__inv_4_1 vdd vss sky130_fd_sc_hd__inv_4_1/Y sky130_fd_sc_hd__inv_4_1/A
+ vdd vss sky130_fd_sc_hd__inv_4
Xarmleo_gpio_ggnmos_0 pad vssio vddio armleo_gpio_ggnmos
Xsky130_fd_sc_hd__inv_4_2 vdd vss armleo_gpio_lv2hv_1/A_N armleo_gpio_lv2hv_1/A vdd
+ vss sky130_fd_sc_hd__inv_4
Xsky130_fd_sc_hd__inv_4_3 vdd vss armleo_gpio_lv2hv_2/A_N armleo_gpio_lv2hv_2/A vdd
+ vss sky130_fd_sc_hd__inv_4
Xsky130_fd_sc_hd__inv_4_4 vdd vss sky130_fd_sc_hd__inv_4_4/Y sky130_fd_sc_hd__inv_4_4/A
+ vdd vss sky130_fd_sc_hd__inv_4
Xsky130_fd_sc_hd__inv_4_5 vdd vss sky130_fd_sc_hd__inv_4_5/Y oe_l vdd vss sky130_fd_sc_hd__inv_4
Xarmleo_gpio_pfet_driver_x9_0 sky130_fd_sc_hvl__inv_16_0/Y vddio pad armleo_gpio_pfet_driver_x9
Xsky130_fd_sc_hd__inv_4_6 vdd vss armleo_gpio_lv2hv_3/A_N armleo_gpio_lv2hv_3/A vdd
+ vss sky130_fd_sc_hd__inv_4
Xsky130_fd_sc_hd__inv_4_8 vdd vss armleo_gpio_lv2hv_4/A_N armleo_gpio_lv2hv_4/A vdd
+ vss sky130_fd_sc_hd__inv_4
Xsky130_fd_sc_hd__inv_4_7 vdd vss armleo_gpio_lv2hv_0/A_N armleo_gpio_lv2hv_0/A vdd
+ vss sky130_fd_sc_hd__inv_4
Xsky130_fd_sc_hd__nor2_4_0 vss vdd armleo_gpio_lv2hv_5/A out_l sky130_fd_sc_hd__inv_4_4/A
+ vdd vss sky130_fd_sc_hd__nor2_4_0/a_27_297# sky130_fd_sc_hd__nor2_4
Xsky130_fd_sc_hvl__inv_16_1 sky130_fd_sc_hvl__inv_16_1/Y sky130_fd_sc_hvl__inv_4_1/Y
+ vssio vddio vddio vssio sky130_fd_sc_hvl__inv_16
Xsky130_fd_sc_hvl__inv_16_0 sky130_fd_sc_hvl__inv_16_0/Y sky130_fd_sc_hvl__inv_4_0/Y
+ vssio vddio vddio vssio sky130_fd_sc_hvl__inv_16
Xsky130_fd_sc_hd__nor2_4_1 vss vdd armleo_gpio_lv2hv_0/A out_l sky130_fd_sc_hd__inv_4_5/Y
+ vdd vss sky130_fd_sc_hd__nor2_4_1/a_27_297# sky130_fd_sc_hd__nor2_4
Xsky130_fd_sc_hvl__inv_16_2 sky130_fd_sc_hvl__inv_16_2/Y sky130_fd_sc_hvl__inv_4_2/Y
+ vssio vddio vddio vssio sky130_fd_sc_hvl__inv_16
Xsky130_fd_sc_hd__nor2_4_2 vss vdd armleo_gpio_lv2hv_4/A out_l sky130_fd_sc_hd__inv_4_1/A
+ vdd vss sky130_fd_sc_hd__nor2_4_2/a_27_297# sky130_fd_sc_hd__nor2_4
Xsky130_fd_sc_hvl__inv_16_3 sky130_fd_sc_hvl__inv_16_3/Y sky130_fd_sc_hvl__inv_4_3/Y
+ vssio vddio vddio vssio sky130_fd_sc_hvl__inv_16
Xarmleo_gpio_nfet_driver_x6_0 sky130_fd_sc_hvl__inv_16_4/Y vssio pad armleo_gpio_nfet_driver_x6
Xsky130_fd_sc_hvl__inv_16_4 sky130_fd_sc_hvl__inv_16_4/Y sky130_fd_sc_hvl__inv_4_4/Y
+ vssio vddio vddio vssio sky130_fd_sc_hvl__inv_16
Xsky130_fd_pr__res_generic_l1_J5CL4C_0 sky130_fd_sc_hvl__buf_16_0/A sky130_fd_pr__res_generic_l1_J5CL4C_0/li_n100_n1000#
+ pad sky130_fd_pr__res_generic_l1_J5CL4C
Xsky130_fd_sc_hvl__inv_16_5 sky130_fd_sc_hvl__inv_16_5/Y sky130_fd_sc_hvl__inv_4_5/Y
+ vssio vddio vddio vssio sky130_fd_sc_hvl__inv_16
Xarmleo_gpio_nfet_driver_x21_0 sky130_fd_sc_hvl__inv_16_2/Y vssio pad armleo_gpio_nfet_driver_x21
Xarmleo_gpio_lv2hv_0 armleo_gpio_lv2hv_0/A_N armleo_gpio_lv2hv_0/A vssio vddio armleo_gpio_lv2hv_0/Y
+ vddio armleo_gpio_lv2hv_0/a_217_2223# armleo_gpio_lv2hv_0/a_481_358# armleo_gpio_lv2hv_0/a_481_2165#
+ armleo_gpio_lv2hv
Xarmleo_gpio_lv2hv_1 armleo_gpio_lv2hv_1/A_N armleo_gpio_lv2hv_1/A vssio vddio armleo_gpio_lv2hv_1/Y
+ vddio armleo_gpio_lv2hv_1/a_217_2223# armleo_gpio_lv2hv_1/a_481_358# armleo_gpio_lv2hv_1/a_481_2165#
+ armleo_gpio_lv2hv
Xarmleo_gpio_lv2hv_2 armleo_gpio_lv2hv_2/A_N armleo_gpio_lv2hv_2/A vssio vddio armleo_gpio_lv2hv_2/Y
+ vddio armleo_gpio_lv2hv_2/a_217_2223# armleo_gpio_lv2hv_2/a_481_358# armleo_gpio_lv2hv_2/a_481_2165#
+ armleo_gpio_lv2hv
Xarmleo_gpio_lv2hv_3 armleo_gpio_lv2hv_3/A_N armleo_gpio_lv2hv_3/A vssio vddio armleo_gpio_lv2hv_3/Y
+ vddio armleo_gpio_lv2hv_3/a_217_2223# armleo_gpio_lv2hv_3/a_481_358# armleo_gpio_lv2hv_3/a_481_2165#